12
benzene CISD/3-21G equilibrium
C 0.0000  1.4080  0.0000
C 1.2193  0.7040  0.0000
C 1.2193  -0.7040 0.0000
C 0.0000  -1.4080 0.0000
C -1.2193 -0.7040 0.0000
C -1.2193 0.7040  0.0000
H 0.0000  2.4980  0.0000
H 2.1633  1.2490  0.0000
H 2.1633  -1.2490 0.0000
H 0.0000  -2.4980 0.0000
H -2.1633 -1.2490 0.0000
H -2.1633 1.2490  0.0000
